Data/case_illinois200.m
function mpc = case_illinois200
%CASE_ILLINOIS200  Synthetic 200 bus Illinois case.
%
%   This is an entirely synthetic 200 bus case, geographically situated
%   in the central part of the US state of Illinois. The case is
%   designed with a 230 and 115 kV transmission network to serve a load
%   that roughly mimics the actual population of its geographic
%   footprint. The synthetic transmission system was designed by
%   algorithms described in [1] to be statistically similar to actual
%   transmission system models but without modeling any actual lines.
%
%   When publishing results based on this data, please cite:
%
%   [1] A.B. Birchfield, T. Xu, K.M. Gegner, K.S. Shetye, T.J. Overbye,
%       "Grid Structural Characteristics as Validation Criteria for
%       Synthetic Networks," IEEE Transactions on Power Systems, 2017.

%   Created from Illinois200_DEC-06-2016_v19.pwb, saved by
%   PowerWorld Simulator, version 20 Beta, build date December 2, 2016,
%   then by MATPOWER 6.0.

%   MATPOWER
%   Copyright (c) 2016, Power Systems Engineering Research Center (PSERC)
%   Licensed under the Creative Commons Attribution 4.0 International license,
%   http://creativecommons.org/licenses/by/4.0/

%% MATPOWER Case Format : Version 2
mpc.version = '2';

%%-----  Power Flow Data  -----%%
%% system MVA base
mpc.baseMVA = 100;

%% bus data
%	bus_i	type	Pd	Qd	Gs	Bs	area	Vm	Va	baseKV	zone	Vmax	Vmin	lam_P	lam_Q	mu_Vmax	mu_Vmin
mpc.bus = [
	1	1	0	0	0	0	1	0.9987253	-36.484845	115	1	1.1	0.9	19.9100	0.0000	0.0000	0.0000;
	2	1	10.95	3.12	0	0	1	0.9985471	-36.504646	115	1	1.1	0.9	19.9100	0.0000	0.0000	0.0000;
	3	1	0	0	0	0	1	1.0103316	-38.186132	115	1	1.1	0.9	19.9100	0.0000	0.0000	0.0000;
	4	1	2.72	0.77	0	0	1	1.0102908	-38.190918	115	1	1.1	0.9	19.9100	0.0000	0.0000	0.0000;
	5	1	0	0	0	0	1	1.0231747	-38.81435	115	1	1.1	0.9	19.9100	0.0000	0.0000	0.0000;
	6	1	12.5	3.56	0	0	1	1.0229736	-38.835837	115	1	1.1	0.9	19.9100	0.0000	0.0000	0.0000;
	7	1	0	0	0	0	1	0.9895163	-37.640747	115	1	1.1	0.9	19.9100	0.0000	0.0000	0.0000;
	8	1	35.2	10.03	0	0	1	0.9889666	-37.702748	115	1	1.1	0.9	19.9100	0.0000	0.0000	0.0000;
	9	1	0	0	0	0	1	0.9939302	-37.023795	115	1	1.1	0.9	19.9100	0.0000	0.0000	0.0000;
	10	1	63.29	18.04	0	0	1	0.9928336	-37.163436	115	1	1.1	0.9	19.9100	0.0000	0.0000	0.0000;
	11	1	0	0	0	0	1	1.0349069	-35.627278	115	1	1.1	0.9	19.9100	0.0000	0.0000	0.0000;
	12	1	0.49	0.14	0	0	1	1.0348996	-35.628157	115	1	1.1	0.9	19.9100	0.0000	0.0000	0.0000;
	13	1	4.04	1.15	0	0	1	1.0348425	-35.634698	115	1	1.1	0.9	19.9100	0.0000	0.0000	0.0000;
	14	1	0	0	0	0	1	1.0331195	-34.381983	230	1	1.1	0.9	19.9100	0.0000	0.0000	0.0000;
	15	1	0	0	0	30	1	1.0355891	-35.497711	115	1	1.1	0.9	19.9100	0.0000	0.0000	0.0000;
	16	1	71.7	20.44	0	0	1	1.0345716	-35.61438	115	1	1.1	0.9	19.9100	0.0000	0.0000	0.0000;
	17	1	0	0	0	0	1	1.0011339	-39.161689	115	1	1.1	0.9	19.9100	0.0000	0.0000	0.0000;
	18	1	1.14	0.33	0	0	1	1.0011154	-39.164163	115	1	1.1	0.9	19.9100	0.0000	0.0000	0.0000;
	19	1	1.23	0.35	0	0	1	1.0011168	-39.163754	115	1	1.1	0.9	19.9100	0.0000	0.0000	0.0000;
	20	1	1.81	0.52	0	0	1	1.0011054	-39.164968	115	1	1.1	0.9	19.9100	0.0000	0.0000	0.0000;
	21	1	7.38	2.1	0	0	1	1.0010054	-39.177564	115	1	1.1	0.9	19.9100	0.0000	0.0000	0.0000;
	22	1	0	0	0	0	1	1.0344601	-35.650737	115	1	1.1	0.9	19.9100	0.0000	0.0000	0.0000;
	23	1	2.26	0.64	0	0	1	1.0344265	-35.654423	115	1	1.1	0.9	19.9100	0.0000	0.0000	0.0000;
	24	1	3.84	1.09	0	0	1	1.0344021	-35.65664	115	1	1.1	0.9	19.9100	0.0000	0.0000	0.0000;
	25	1	0	0	0	0	1	1.0257099	-39.09735	115	1	1.1	0.9	19.9100	0.0000	0.0000	0.0000;
	26	1	2.13	0.61	0	0	1	1.0256791	-39.100707	115	1	1.1	0.9	19.9100	0.0000	0.0000	0.0000;
	27	1	0	0	0	0	1	1.0350538	-35.782451	115	1	1.1	0.9	19.9100	0.0000	0.0000	0.0000;
	28	1	3.74	1.07	0	0	1	1.0349918	-35.79004	115	1	1.1	0.9	19.9100	0.0000	0.0000	0.0000;
	29	1	0	0	0	0	1	0.9988561	-36.226215	115	1	1.1	0.9	19.9100	0.0000	0.0000	0.0000;
	30	1	87.62	24.97	0	0	1	0.9974594	-36.374027	115	1	1.1	0.9	19.9100	0.0000	0.0000	0.0000;
	31	1	0	0	0	0	1	0.9993814	-39.56236	115	1	1.1	0.9	19.9100	0.0000	0.0000	0.0000;
	32	1	0.7	0.2	0	0	1	0.9993689	-39.563847	115	1	1.1	0.9	19.9100	0.0000	0.0000	0.0000;
	33	1	8.82	2.51	0	0	1	0.9992433	-39.580004	115	1	1.1	0.9	19.9100	0.0000	0.0000	0.0000;
	34	1	0	0	0	0	1	1.017926	-36.92968	115	1	1.1	0.9	19.9100	0.0000	0.0000	0.0000;
	35	1	33.26	9.48	0	0	1	1.017395	-36.994263	115	1	1.1	0.9	19.9100	0.0000	0.0000	0.0000;
	36	1	0	0	0	0	1	1.0059315	-39.693345	115	1	1.1	0.9	19.9100	0.0000	0.0000	0.0000;
	37	1	4.89	1.39	0	0	1	1.0058586	-39.702124	115	1	1.1	0.9	19.9100	0.0000	0.0000	0.0000;
	38	1	40.81	11.63	0	0	1	1.0052524	-39.770111	115	1	1.1	0.9	19.9100	0.0000	0.0000	0.0000;
	39	1	11.86	3.38	0	0	1	0.9988683	-39.913488	115	1	1.1	0.9	19.9100	0.0000	0.0000	0.0000;
	40	1	3.28	0.93	0	0	1	0.9988227	-39.919055	115	1	1.1	0.9	19.9100	0.0000	0.0000	0.0000;
	41	1	61.87	17.63	0	0	1	1.0150375	-41.826757	115	1	1.1	0.9	19.9100	0.0000	0.0000	0.0000;
	42	1	17.01	4.85	0	0	1	1.0070583	-38.646358	115	1	1.1	0.9	19.9100	0.0000	0.0000	0.0000;
	43	1	3.09	0.88	0	0	1	0.9943791	-38.626607	115	1	1.1	0.9	19.9100	0.0000	0.0000	0.0000;
	44	1	6.65	1.89	0	0	1	1.004904	-38.490044	115	1	1.1	0.9	19.9100	0.0000	0.0000	0.0000;
	45	1	0	0	0	0	1	1.0277558	-33.752015	230	1	1.1	0.9	19.9100	0.0000	0.0000	0.0000;
	46	1	8.68	2.47	0	0	1	1.0252088	-34.633271	115	1	1.1	0.9	19.9100	0.0000	0.0000	0.0000;
	47	1	2.47	0.71	0	0	1	1.0316417	-35.017317	115	1	1.1	0.9	19.9100	0.0000	0.0000	0.0000;
	48	1	2.87	0.82	0	0	1	1.0204693	-39.106063	115	1	1.1	0.9	19.9100	0.0000	0.0000	0.0000;
	49	2	0	0	0	0	1	1.0322808	-37.826268	13.8	1	1.1	0.9	19.9100	0.0000	0.0000	0.0000;
	50	2	0	0	0	0	1	1.0295607	-38.132551	13.8	1	1.1	0.9	19.9100	0.0000	0.0000	0.0000;
	51	2	0	0	0	0	1	1.0338254	-37.629606	13.8	1	1.1	0.9	19.9100	0.0000	0.0000	0.0000;
	52	2	0	0	0	0	1	1.0290833	-38.19229	13.8	1	1.1	0.9	19.9100	0.0000	0.0000	0.0000;
	53	2	0	0	0	0	1	1.04	-36.320835	13.8	1	1.1	0.9	19.9100	0.0000	0.0000	0.0000;
	54	1	4.27	1.22	0	0	1	1.0279093	-35.518225	115	1	1.1	0.9	19.9100	0.0000	0.0000	0.0000;
	55	1	0	0	0	0	1	1.0247171	-34.507306	230	1	1.1	0.9	19.9100	0.0000	0.0000	0.0000;
	56	1	1.79	0.51	0	0	1	1.0231808	-34.882556	115	1	1.1	0.9	19.9100	0.0000	0.0000	0.0000;
	57	1	4.52	1.29	0	0	1	1.0055562	-38.958227	115	1	1.1	0.9	19.9100	0.0000	0.0000	0.0000;
	58	1	5.79	1.65	0	0	1	1.0130443	-39.471071	115	1	1.1	0.9	19.9100	0.0000	0.0000	0.0000;
	59	1	7.02	2	0	0	1	0.9916953	-39.285283	115	1	1.1	0.9	19.9100	0.0000	0.0000	0.0000;
	60	1	5.63	1.6	0	0	1	1.0135099	-35.185033	115	1	1.1	0.9	19.9100	0.0000	0.0000	0.0000;
	61	1	28.14	8.02	0	0	1	1.0213539	-35.141536	115	1	1.1	0.9	19.9100	0.0000	0.0000	0.0000;
	62	1	34.29	9.77	0	0	1	1.0013273	-39.623617	115	1	1.1	0.9	19.9100	0.0000	0.0000	0.0000;
	63	1	12.79	3.64	0	0	1	1.027569	-37.020582	115	1	1.1	0.9	19.9100	0.0000	0.0000	0.0000;
	64	1	0	0	0	0	1	1.0291107	-38.087884	115	1	1.1	0.9	19.9100	0.0000	0.0000	0.0000;
	65	2	0	0	0	0	1	1.04	-34.796049	13.8	1	1.1	0.9	19.9100	0.0000	0.0000	0.0000;
	66	1	0	0	0	0	1	1.0357844	-34.438374	115	1	1.1	0.9	19.9100	0.0000	0.0000	0.0000;
	67	2	0	0	0	0	1	1.039763	-34.100753	13.8	1	1.1	0.9	19.9100	0.0000	0.0000	0.0000;
	68	2	0	0	0	0	1	1.04	-30.506916	13.8	1	1.1	0.9	19.9100	0.0000	0.0000	0.0000;
	69	2	0	0	0	0	1	1.04	-33.036192	13.8	1	1.1	0.9	19.9100	0.0000	0.0000	0.0000;
	70	2	0	0	0	0	1	1.04	-31.482346	13.8	1	1.1	0.9	19.9100	0.0000	0.0000	0.0000;
	71	2	0	0	0	0	1	1.04	-33.235699	13.8	1	1.1	0.9	19.9100	0.0000	0.0000	0.0000;
	72	2	0	0	0	0	1	1.04	-33.339534	13.8	1	1.1	0.9	19.9100	0.0000	0.0000	0.0000;
	73	2	0	0	0	0	1	1.04	-32.271523	13.8	1	1.1	0.9	19.9100	0.0000	0.0000	0.0000;
	74	1	29.51	8.41	0	0	1	1.0095407	-40.161028	115	1	1.1	0.9	19.9100	0.0000	0.0000	0.0000;
	75	1	5.34	1.52	0	0	1	1.0145111	-34.715113	115	1	1.1	0.9	19.9100	0.0000	0.0000	0.0000;
	76	2	0	0	0	0	1	1.030452	-34.242271	13.8	1	1.1	0.9	19.9100	0.0000	0.0000	0.0000;
	77	2	0	0	0	0	1	1.0399996	-33.909675	13.8	1	1.1	0.9	19.9100	0.0000	0.0000	0.0000;
	78	2	0	0	0	0	1	1.0145111	-34.715113	13.8	1	1.1	0.9	19.9100	0.0000	0.0000	0.0000;
	79	2	0	0	0	0	1	1.0145111	-34.715113	13.8	1	1.1	0.9	19.9100	0.0000	0.0000	0.0000;
	80	1	2.38	0.68	0	0	1	1.0176234	-40.507786	115	1	1.1	0.9	19.9100	0.0000	0.0000	0.0000;
	81	1	0	0	0	0	1	1.0198084	-36.318888	230	1	1.1	0.9	19.9100	0.0000	0.0000	0.0000;
	82	1	11.96	3.41	0	0	1	1.0148957	-37.611244	115	1	1.1	0.9	19.9100	0.0000	0.0000	0.0000;
	83	1	4.29	1.22	0	0	1	1.012163	-38.235649	115	1	1.1	0.9	19.9100	0.0000	0.0000	0.0000;
	84	1	5.56	1.59	0	0	1	0.9974352	-38.576435	115	1	1.1	0.9	19.9100	0.0000	0.0000	0.0000;
	85	1	7.74	2.21	0	0	1	0.998593	-39.876466	115	1	1.1	0.9	19.9100	0.0000	0.0000	0.0000;
	86	1	12.23	3.49	0	0	1	0.9914831	-37.33722	115	1	1.1	0.9	19.9100	0.0000	0.0000	0.0000;
	87	1	0	0	0	0	1	1.0239312	-34.425784	230	1	1.1	0.9	19.9100	0.0000	0.0000	0.0000;
	88	1	79.66	22.7	0	0	1	1.0179159	-36.548316	115	1	1.1	0.9	19.9100	0.0000	0.0000	0.0000;
	89	1	86.04	24.52	0	0	1	1.0153373	-38.730979	115	1	1.1	0.9	19.9100	0.0000	0.0000	0.0000;
	90	2	0	0	0	0	1	1.0400527	-37.57943	13.8	1	1.1	0.9	19.9100	0.0000	0.0000	0.0000;
	91	2	0	0	0	0	1	1.0281598	-38.350971	13.8	1	1.1	0.9	19.9100	0.0000	0.0000	0.0000;
	92	2	0	0	0	0	1	1.0153373	-38.730979	13.8	1	1.1	0.9	19.9100	0.0000	0.0000	0.0000;
	93	1	4.91	1.4	0	0	1	1.0338729	-36.46476	115	1	1.1	0.9	19.9100	0.0000	0.0000	0.0000;
	94	2	0	0	0	0	1	1.04	-33.783748	13.8	1	1.1	0.9	19.9100	0.0000	0.0000	0.0000;
	95	1	4.11	1.17	0	30	1	1.0232285	-39.22667	115	1	1.1	0.9	19.9100	0.0000	0.0000	0.0000;
	96	1	4.05	1.15	0	0	1	1.0213953	-36.538532	115	1	1.1	0.9	19.9100	0.0000	0.0000	0.0000;
	97	1	10.87	3.1	0	0	1	1.0071893	-36.745569	115	1	1.1	0.9	19.9100	0.0000	0.0000	0.0000;
	98	1	0	0	0	0	1	1.011373	-33.812716	230	1	1.1	0.9	19.9100	0.0000	0.0000	0.0000;
	99	1	18.04	5.14	0	0	1	1.0042577	-35.251722	115	1	1.1	0.9	19.9100	0.0000	0.0000	0.0000;
	100	1	60.35	17.2	0	80	1	1.0247974	-41.244916	115	1	1.1	0.9	19.9100	0.0000	0.0000	0.0000;
	101	1	0.77	0.22	0	0	1	0.9929976	-37.226845	115	1	1.1	0.9	19.9100	0.0000	0.0000	0.0000;
	102	1	0	0	0	0	1	1.0264281	-34.196747	230	1	1.1	0.9	19.9100	0.0000	0.0000	0.0000;
	103	1	0	0	0	0	1	1.0228028	-34.942196	115	1	1.1	0.9	19.9100	0.0000	0.0000	0.0000;
	104	2	0	0	0	0	1	1.04	-31.764889	13.8	1	1.1	0.9	19.9100	0.0000	0.0000	0.0000;
	105	2	0	0	0	0	1	1.04	-32.199518	13.8	1	1.1	0.9	19.9100	0.0000	0.0000	0.0000;
	106	1	2.82	0.8	0	0	1	1.0183205	-35.532764	115	1	1.1	0.9	19.9100	0.0000	0.0000	0.0000;
	107	1	71.96	20.51	0	0	1	0.9937757	-39.401922	115	1	1.1	0.9	19.9100	0.0000	0.0000	0.0000;
	108	1	13.97	3.98	0	0	1	1.009449	-35.497994	115	1	1.1	0.9	19.9100	0.0000	0.0000	0.0000;
	109	1	8.26	2.35	0	0	1	1.0053316	-38.276135	115	1	1.1	0.9	19.9100	0.0000	0.0000	0.0000;
	110	1	16.1	4.59	0	0	1	0.993136	-37.186933	115	1	1.1	0.9	19.9100	0.0000	0.0000	0.0000;
	111	1	14.23	4.05	0	0	1	1.0102879	-42.063077	115	1	1.1	0.9	19.9100	0.0000	0.0000	0.0000;
	112	1	0	0	0	0	1	1.020933	-34.8794	230	1	1.1	0.9	19.9100	0.0000	0.0000	0.0000;
	113	1	0	0	0	0	1	1.0008686	-38.390099	115	1	1.1	0.9	19.9100	0.0000	0.0000	0.0000;
	114	2	0	0	0	0	1	1.0230842	-34.634125	13.8	1	1.1	0.9	19.9100	0.0000	0.0000	0.0000;
	115	2	0	0	0	0	1	1.0399997	-32.355944	13.8	1	1.1	0.9	19.9100	0.0000	0.0000	0.0000;
	116	1	0	0	0	0	1	1.0104285	-34.168369	230	1	1.1	0.9	19.9100	0.0000	0.0000	0.0000;
	117	1	50.54	14.4	0	0	1	0.999201	-36.643951	115	1	1.1	0.9	19.9100	0.0000	0.0000	0.0000;
	118	1	5.84	1.66	0	0	1	1.0033711	-35.972147	115	1	1.1	0.9	19.9100	0.0000	0.0000	0.0000;
	119	1	26.03	7.42	0	0	1	0.9895964	-38.886846	115	1	1.1	0.9	19.9100	0.0000	0.0000	0.0000;
	120	1	2.88	0.82	0	0	1	0.9996053	-39.627558	115	1	1.1	0.9	19.9100	0.0000	0.0000	0.0000;
	121	1	0	0	0	0	1	1.0324816	-32.772229	230	1	1.1	0.9	19.9100	0.0000	0.0000	0.0000;
	122	1	21.14	6.02	0	0	1	1.0262679	-34.804698	115	1	1.1	0.9	19.9100	0.0000	0.0000	0.0000;
	123	1	0	0	0	0	1	1.0221851	-32.299716	230	1	1.1	0.9	19.9100	0.0000	0.0000	0.0000;
	124	1	0	0	0	0	1	1.0082927	-34.986017	115	1	1.1	0.9	19.9100	0.0000	0.0000	0.0000;
	125	2	0	0	0	0	1	1.04	-25.00025	13.8	1	1.1	0.9	19.9100	0.0000	0.0000	0.0000;
	126	2	0	0	0	0	1	1.04	-27.689867	13.8	1	1.1	0.9	19.9100	0.0000	0.0000	0.0000;
	127	2	0	0	0	0	1	1.0399998	-30.108481	13.8	1	1.1	0.9	19.9100	0.0000	0.0000	0.0000;
	128	1	0	0	0	0	1	1.0203933	-34.83526	230	1	1.1	0.9	19.9100	0.0000	0.0000	0.0000;
	129	1	105.76	30.14	0	0	1	0.9994277	-38.546988	115	1	1.1	0.9	19.9100	0.0000	0.0000	0.0000;
	130	1	6.02	1.72	0	0	1	1.0145653	-35.984118	115	1	1.1	0.9	19.9100	0.0000	0.0000	0.0000;
	131	1	44.86	12.79	0	0	1	0.9940677	-37.05827	115	1	1.1	0.9	19.9100	0.0000	0.0000	0.0000;
	132	1	39.98	11.39	0	0	1	0.9900854	-38.563865	115	1	1.1	0.9	19.9100	0.0000	0.0000	0.0000;
	133	1	0	0	0	0	1	1.0242435	-32.306364	230	1	1.1	0.9	19.9100	0.0000	0.0000	0.0000;
	134	1	0	0	0	0	1	1.0195573	-33.769344	115	1	1.1	0.9	19.9100	0.0000	0.0000	0.0000;
	135	2	0	0	0	0	1	1.04	-28.408423	13.8	1	1.1	0.9	19.9100	0.0000	0.0000	0.0000;
	136	2	0	0	0	0	1	1.04	-29.416358	13.8	1	1.1	0.9	19.9100	0.0000	0.0000	0.0000;
	137	1	1.86	0.53	0	0	1	1.0137634	-37.627525	115	1	1.1	0.9	19.9100	0.0000	0.0000	0.0000;
	138	1	3.29	0.94	0	0	1	1.0078133	-38.579746	115	1	1.1	0.9	19.9100	0.0000	0.0000	0.0000;
	139	1	10.14	2.89	0	0	1	0.9946733	-39.376811	115	1	1.1	0.9	19.9100	0.0000	0.0000	0.0000;
	140	1	12.18	3.47	0	0	1	1.0063156	-35.35143	115	1	1.1	0.9	19.9100	0.0000	0.0000	0.0000;
	141	1	2.11	0.6	0	0	1	0.9930708	-37.183069	115	1	1.1	0.9	19.9100	0.0000	0.0000	0.0000;
	142	1	55.26	15.75	0	0	1	0.9914475	-37.194045	115	1	1.1	0.9	19.9100	0.0000	0.0000	0.0000;
	143	1	43.22	12.32	0	0	1	1.008897	-39.577922	115	1	1.1	0.9	19.9100	0.0000	0.0000	0.0000;
	144	1	13.43	3.83	0	0	1	1.0037721	-36.964329	115	1	1.1	0.9	19.9100	0.0000	0.0000	0.0000;
	145	1	28.32	8.07	0	0	1	1.0093721	-37.694371	115	1	1.1	0.9	19.9100	0.0000	0.0000	0.0000;
	146	1	0	0	0	0	1	1.0169636	-38.0211	115	1	1.1	0.9	19.9100	0.0000	0.0000	0.0000;
	147	2	0	0	0	0	1	1.0381577	-35.728968	13.8	1	1.1	0.9	19.9100	0.0000	0.0000	0.0000;
	148	1	47.49	13.53	0	0	1	0.9849749	-38.239004	115	1	1.1	0.9	19.9100	0.0000	0.0000	0.0000;
	149	1	0	0	0	0	1	1.0276389	-33.725517	230	1	1.1	0.9	19.9100	0.0000	0.0000	0.0000;
	150	1	0	0	0	0	1	1.0233662	-35.739007	115	1	1.1	0.9	19.9100	0.0000	0.0000	0.0000;
	151	2	0	0	0	0	1	1.04	-31.937978	13.8	1	1.1	0.9	19.9100	0.0000	0.0000	0.0000;
	152	2	0	0	0	0	1	1.04	-27.865328	13.8	1	1.1	0.9	19.9100	0.0000	0.0000	0.0000;
	153	2	0	0	0	0	1	1.04	-26.089597	13.8	1	1.1	0.9	19.9100	0.0000	0.0000	0.0000;
	154	2	0	0	0	0	1	1.04	-29.478111	13.8	1	1.1	0.9	19.9100	0.0000	0.0000	0.0000;
	155	2	0	0	0	0	1	1.04	-29.607317	13.8	1	1.1	0.9	19.9100	0.0000	0.0000	0.0000;
	156	1	0	0	0	0	1	1.0223269	-32.427279	230	1	1.1	0.9	19.9100	0.0000	0.0000	0.0000;
	157	1	21.88	6.24	0	0	1	1.0187677	-33.574016	115	1	1.1	0.9	19.9100	0.0000	0.0000	0.0000;
	158	1	14.36	4.09	0	0	1	1.034686	-35.213704	115	1	1.1	0.9	19.9100	0.0000	0.0000	0.0000;
	159	1	2.22	0.63	0	0	1	1.0019767	-39.516135	115	1	1.1	0.9	19.9100	0.0000	0.0000	0.0000;
	160	1	0	0	0	0	1	1.0081743	-38.723814	115	1	1.1	0.9	19.9100	0.0000	0.0000	0.0000;
	161	2	0	0	0	0	1	1.0081743	-38.723814	13.8	1	1.1	0.9	19.9100	0.0000	0.0000	0.0000;
	162	1	2.15	0.61	0	0	1	1.0024632	-36.906507	115	1	1.1	0.9	19.9100	0.0000	0.0000	0.0000;
	163	1	73.93	21.07	0	0	1	1.0123536	-41.843199	115	1	1.1	0.9	19.9100	0.0000	0.0000	0.0000;
	164	2	0	0	0	0	1	1.0123536	-41.843199	13.8	1	1.1	0.9	19.9100	0.0000	0.0000	0.0000;
	165	2	0	0	0	0	1	1.0123536	-41.843199	13.8	1	1.1	0.9	19.9100	0.0000	0.0000	0.0000;
	166	2	0	0	0	0	1	1.0123536	-41.843199	13.8	1	1.1	0.9	19.9100	0.0000	0.0000	0.0000;
	167	2	0	0	0	0	1	1.0218227	-41.564013	13.8	1	1.1	0.9	19.9100	0.0000	0.0000	0.0000;
	168	2	0	0	0	0	1	1.0123536	-41.843199	13.8	1	1.1	0.9	19.9100	0.0000	0.0000	0.0000;
	169	2	0	0	0	0	1	1.0123536	-41.843199	13.8	1	1.1	0.9	19.9100	0.0000	0.0000	0.0000;
	170	2	0	0	0	0	1	1.0301529	-41.305336	13.8	1	1.1	0.9	19.9100	0.0000	0.0000	0.0000;
	171	1	12.49	3.56	0	0	1	1.0060941	-39.656251	115	1	1.1	0.9	19.9100	0.0000	0.0000	0.0000;
	172	1	8.68	2.47	0	0	1	1.018887	-40.984003	115	1	1.1	0.9	19.9100	0.0000	0.0000	0.0000;
	173	1	14.06	4.01	0	0	1	1.0119075	-41.57088	115	1	1.1	0.9	19.9100	0.0000	0.0000	0.0000;
	174	1	4.47	1.27	0	0	1	1.0204429	-40.065498	115	1	1.1	0.9	19.9100	0.0000	0.0000	0.0000;
	175	1	11.8	3.36	0	0	1	1.0099292	-41.994472	115	1	1.1	0.9	19.9100	0.0000	0.0000	0.0000;
	176	1	30.69	8.75	0	0	1	1.0131194	-37.170943	115	1	1.1	0.9	19.9100	0.0000	0.0000	0.0000;
	177	1	15.45	4.4	0	0	1	1.0073091	-39.250774	115	1	1.1	0.9	19.9100	0.0000	0.0000	0.0000;
	178	1	0	0	0	0	1	1.019565	-37.089357	230	1	1.1	0.9	19.9100	0.0000	0.0000	0.0000;
	179	1	38.1	10.86	0	0	1	1.0183811	-40.152559	115	1	1.1	0.9	19.9100	0.0000	0.0000	0.0000;
	180	1	12.5	3.56	0	0	1	1.0184757	-40.98553	115	1	1.1	0.9	19.9100	0.0000	0.0000	0.0000;
	181	1	76.87	21.91	0	0	1	1.0118841	-38.230887	115	1	1.1	0.9	19.9100	0.0000	0.0000	0.0000;
	182	2	0	0	0	0	1	1.0359846	-35.430907	13.8	1	1.1	0.9	19.9100	0.0000	0.0000	0.0000;
	183	2	0	0	0	0	1	1.0264683	-36.58583	13.8	1	1.1	0.9	19.9100	0.0000	0.0000	0.0000;
	184	1	17.26	4.92	0	0	1	1.0223367	-39.874601	115	1	1.1	0.9	19.9100	0.0000	0.0000	0.0000;
	185	1	17.42	4.96	0	0	1	1.0130106	-37.196027	115	1	1.1	0.9	19.9100	0.0000	0.0000	0.0000;
	186	1	3.12	0.89	0	0	1	1.0108151	-37.232587	115	1	1.1	0.9	19.9100	0.0000	0.0000	0.0000;
	187	1	0	0	0	0	1	1.03501	-31.777405	230	1	1.1	0.9	19.9100	0.0000	0.0000	0.0000;
	188	1	0	0	0	0	1	1.0260971	-35.97214	115	1	1.1	0.9	19.9100	0.0000	0.0000	0.0000;
	189	3	0	0	0	0	1	1.04	-29.418352	13.8	1	1.1	0.9	19.9100	0.0000	0.0000	0.0000;
	190	1	26.41	7.53	0	0	1	1.0045903	-40.38272	115	1	1.1	0.9	19.9100	0.0000	0.0000	0.0000;
	191	1	11.67	3.32	0	0	1	1.0244728	-38.931208	115	1	1.1	0.9	19.9100	0.0000	0.0000	0.0000;
	192	1	72.21	20.58	0	0	1	0.9936463	-39.564117	115	1	1.1	0.9	19.9100	0.0000	0.0000	0.0000;
	193	1	32.61	9.29	0	0	1	0.9949034	-36.917745	115	1	1.1	0.9	19.9100	0.0000	0.0000	0.0000;
	194	1	60.67	17.29	0	50	1	1.0203914	-37.041793	115	1	1.1	0.9	19.9100	0.0000	0.0000	0.0000;
	195	1	0	0	0	0	1	1.0115779	-38.232512	115	1	1.1	0.9	19.9100	0.0000	0.0000	0.0000;
	196	2	0	0	0	0	1	1.0115779	-38.232512	13.8	1	1.1	0.9	19.9100	0.0000	0.0000	0.0000;
	197	2	0	0	0	0	1	1.0115779	-38.232512	13.8	1	1.1	0.9	19.9100	0.0000	0.0000	0.0000;
	198	1	7.97	2.27	0	0	1	1.0044686	-36.042435	115	1	1.1	0.9	19.9100	0.0000	0.0000	0.0000;
	199	1	6.69	1.91	0	0	1	1.0216683	-40.242031	115	1	1.1	0.9	19.9100	0.0000	0.0000	0.0000;
	200	1	14.97	4.27	0	0	1	1.0037141	-37.924332	115	1	1.1	0.9	19.9100	0.0000	0.0000	0.0000;
];

%% generator data
%	bus	Pg	Qg	Qmax	Qmin	Vg	mBase	status	Pmax	Pmin	Pc1	Pc2	Qc1min	Qc1max	Qc2min	Qc2max	ramp_agc	ramp_10	ramp_30	ramp_q	apf	mu_Pmax	mu_Pmin	mu_Qmax	mu_Qmin
mpc.gen = [
	49	4.53	2.11	2.11	-0.55	1.04	5.44	1	4.53	1.36	0	0	0	0	0	0	0	0	0	0	0	0.0000	0.0000	0.0000	0.0000;
	50	4.53	2.11	2.11	-0.55	1.04	5.44	1	4.53	1.36	0	0	0	0	0	0	0	0	0	0	0	0.0000	0.0000	0.0000	0.0000;
	51	4.53	2.11	2.11	-0.55	1.04	5.44	1	4.53	1.36	0	0	0	0	0	0	0	0	0	0	0	0.0000	0.0000	0.0000	0.0000;
	52	4.53	2.11	2.11	-0.55	1.04	5.44	1	4.53	1.36	0	0	0	0	0	0	0	0	0	0	0	0.0000	0.0000	0.0000	0.0000;
	53	9.07	3.41	4.23	-1.11	1.04	10.88	1	9.07	2.72	0	0	0	0	0	0	0	0	0	0	0	0.0000	0.0000	0.0000	0.0000;
	65	60.66	12.12	32.04	-21.66	1.04	180.48	1	150.4	45.12	0	0	0	0	0	0	0	0	0	0	0	0.0000	0.0000	0.0000	0.0000;
	67	4.7	2.19	2.19	-0.57	1.04	5.64	1	4.7	1.41	0	0	0	0	0	0	0	0	0	0	0	0.0000	0.0000	0.0000	0.0000;
	68	27.92	1.89	13.01	-3.41	1.04	33.5	1	27.92	8.38	0	0	0	0	0	0	0	0	0	0	0	0.0000	0.0000	0.0000	0.0000;
	69	27.92	3.66	13.01	-3.41	1.04	33.5	1	27.92	8.38	0	0	0	0	0	0	0	0	0	0	0	0.0000	0.0000	0.0000	0.0000;
	70	27.92	1.95	13.01	-3.41	1.04	33.5	1	27.92	8.38	0	0	0	0	0	0	0	0	0	0	0	0.0000	0.0000	0.0000	0.0000;
	71	27.92	4.46	13.01	-3.41	1.04	33.5	1	27.92	8.38	0	0	0	0	0	0	0	0	0	0	0	0.0000	0.0000	0.0000	0.0000;
	72	27.92	4.82	13.01	-3.41	1.04	33.5	1	27.92	8.38	0	0	0	0	0	0	0	0	0	0	0	0.0000	0.0000	0.0000	0.0000;
	73	27.92	2.21	13.01	-3.41	1.04	33.5	1	27.92	8.38	0	0	0	0	0	0	0	0	0	0	0	0.0000	0.0000	0.0000	0.0000;
	76	1.2	2.04	2.04	-0.44	1.04	4.8	1	4	1.2	0	0	0	0	0	0	0	0	0	0	0	0.0000	0.0000	0.0000	0.0000;
	77	0.72	1.19	1.22	-0.27	1.04	2.88	1	2.4	0.72	0	0	0	0	0	0	0	0	0	0	0	0.0000	0.0000	0.0000	0.0000;
	78	0	0	9.16	-2	1.04	21.6	0	18	5.4	0	0	0	0	0	0	0	0	0	0	0	0.0000	0.0000	0.0000	0.0000;
	79	0	0	9.16	-2	1.04	21.6	0	18	5.4	0	0	0	0	0	0	0	0	0	0	0	0.0000	0.0000	0.0000	0.0000;
	90	0.96	1.11	1.63	-0.36	1.04	3.84	1	3.2	0.96	0	0	0	0	0	0	0	0	0	0	0	0.0000	0.0000	0.0000	0.0000;
	91	1.5	2.55	2.55	-0.55	1.04	6	1	5	1.5	0	0	0	0	0	0	0	0	0	0	0	0.0000	0.0000	0.0000	0.0000;
	92	0	0	3.21	-0.7	1.04	7.56	0	6.3	1.89	0	0	0	0	0	0	0	0	0	0	0	0.0000	0.0000	0.0000	0.0000;
	94	18	2.01	8.39	-2.2	1.04	21.6	1	18	5.4	0	0	0	0	0	0	0	0	0	0	0	0.0000	0.0000	0.0000	0.0000;
	104	52	15.94	21.09	-14.26	1.04	118.8	1	99	29.7	0	0	0	0	0	0	0	0	0	0	0	0.0000	0.0000	0.0000	0.0000;
	105	63	23.82	42.17	-28.51	1.04	237.6	1	198	59.4	0	0	0	0	0	0	0	0	0	0	0	0.0000	0.0000	0.0000	0.0000;
	114	1.08	0.36	0.36	-0.24	1.04	2.04	1	1.7	0.51	0	0	0	0	0	0	0	0	0	0	0	0.0000	0.0000	0.0000	0.0000;
	115	75.12	31.7	31.95	-21.6	1.04	180	1	150	45	0	0	0	0	0	0	0	0	0	0	0	0.0000	0.0000	0.0000	0.0000;
	125	130.05	20.39	60.6	-15.87	1.04	156.06	1	130.05	39.02	0	0	0	0	0	0	0	0	0	0	0	0.0000	0.0000	0.0000	0.0000;
	126	130.05	30.35	60.6	-15.87	1.04	156.06	1	130.05	39.02	0	0	0	0	0	0	0	0	0	0	0	0.0000	0.0000	0.0000	0.0000;
	127	130.05	56.81	60.6	-15.87	1.04	156.06	1	130.05	39.02	0	0	0	0	0	0	0	0	0	0	0	0.0000	0.0000	0.0000	0.0000;
	135	216.77	53.47	208.02	-54.46	1.04	535.68	1	446.4	133.92	0	0	0	0	0	0	0	0	0	0	0	0.0000	0.0000	0.0000	0.0000;
	136	196.42	61.49	208.02	-54.46	1.04	535.68	1	446.4	133.92	0	0	0	0	0	0	0	0	0	0	0	0.0000	0.0000	0.0000	0.0000;
	147	42	21.41	21.41	-14.47	1.04	120.6	1	100.5	30.15	0	0	0	0	0	0	0	0	0	0	0	0.0000	0.0000	0.0000	0.0000;
	151	5.4	1.94	2.52	-0.66	1.04	6.48	1	5.4	1.62	0	0	0	0	0	0	0	0	0	0	0	0.0000	0.0000	0.0000	0.0000;
	152	77.22	11.66	35.99	-9.42	1.04	92.67	1	77.22	23.17	0	0	0	0	0	0	0	0	0	0	0	0.0000	0.0000	0.0000	0.0000;
	153	77.22	9.8	35.99	-9.42	1.04	92.67	1	77.22	23.17	0	0	0	0	0	0	0	0	0	0	0	0.0000	0.0000	0.0000	0.0000;
	154	77.22	13.47	35.99	-9.42	1.04	92.67	1	77.22	23.17	0	0	0	0	0	0	0	0	0	0	0	0.0000	0.0000	0.0000	0.0000;
	155	77.22	13.71	35.99	-9.42	1.04	92.67	1	77.22	23.17	0	0	0	0	0	0	0	0	0	0	0	0.0000	0.0000	0.0000	0.0000;
	161	0	0	70.55	-15.38	1.04	166.32	0	138.6	41.58	0	0	0	0	0	0	0	0	0	0	0	0.0000	0.0000	0.0000	0.0000;
	164	0	0	6.11	-1.33	1.04	14.4	0	12	3.6	0	0	0	0	0	0	0	0	0	0	0	0.0000	0.0000	0.0000	0.0000;
	165	0	0	13.23	-2.89	1.04	31.2	0	26	7.8	0	0	0	0	0	0	0	0	0	0	0	0.0000	0.0000	0.0000	0.0000;
	166	0	0	4.78	-1.04	1.04	11.28	0	9.4	2.82	0	0	0	0	0	0	0	0	0	0	0	0.0000	0.0000	0.0000	0.0000;
	167	2.82	4.78	4.78	-1.04	1.04	11.28	1	9.4	2.82	0	0	0	0	0	0	0	0	0	0	0	0.0000	0.0000	0.0000	0.0000;
	168	0	0	4.78	-1.04	1.04	11.28	0	9.4	2.82	0	0	0	0	0	0	0	0	0	0	0	0.0000	0.0000	0.0000	0.0000;
	169	0	0	4.78	-1.04	1.04	11.28	0	9.4	2.82	0	0	0	0	0	0	0	0	0	0	0	0.0000	0.0000	0.0000	0.0000;
	170	2.82	4.78	4.78	-1.04	1.04	11.28	1	9.4	2.82	0	0	0	0	0	0	0	0	0	0	0	0.0000	0.0000	0.0000	0.0000;
	182	17.5	8.16	8.16	-2.14	1.04	21	1	17.5	5.25	0	0	0	0	0	0	0	0	0	0	0	0.0000	0.0000	0.0000	0.0000;
	183	26.6	12.4	12.4	-3.25	1.04	31.92	1	26.6	7.98	0	0	0	0	0	0	0	0	0	0	0	0.0000	0.0000	0.0000	0.0000;
	189	569.13	56.23	209.45	-46.67	1.04	682.98	1	569.15	170.75	0	0	0	0	0	0	0	0	0	0	0	0.0000	0.0000	0.0000	0.0000;
	196	0	0	34.36	-7.49	1.04	81	0	67.5	20.25	0	0	0	0	0	0	0	0	0	0	0	0.0000	0.0000	0.0000	0.0000;
	197	0	0	34.36	-7.49	1.04	81	0	67.5	20.25	0	0	0	0	0	0	0	0	0	0	0	0.0000	0.0000	0.0000	0.0000;
];

%% branch data
%	fbus	tbus	r	x	b	rateA	rateB	rateC	ratio	angle	status	angmin	angmax	Pf	Qf	Pt	Qt	mu_Sf	mu_St	mu_angmin	mu_angmax
mpc.branch = [
	2	1	0.000673	0.003339	0	100	0	0	0	0	1	0	0	-10.9500	-3.1200	10.9500	3.1300	0.0000	0.0000	0.0000	0.0000;
	1	119	0.018542	0.119758	0.02285	221.1	0	0	0	0	1	0	0	35.0400	1.7700	-34.8100	-2.5500	0.0000	0.0000	0.0000	0.0000;
	124	1	0.005615	0.036268	0.00692	221.1	0	0	0	0	1	0	0	75.0900	15.5700	-74.7700	-14.1700	0.0000	0.0000	0.0000	0.0000;
	193	1	0.004258	0.027501	0.00525	221.1	0	0	0	0	1	0	0	-28.7300	-9.5300	28.7700	9.2700	0.0000	0.0000	0.0000	0.0000;
	4	3	0.000573	0.003303	0	100	0	0	0	0	1	0	0	-2.7200	-0.7700	2.7200	0.7700	0.0000	0.0000	0.0000	0.0000;
	57	3	0.008505	0.058098	0.00988	221.1	0	0	0	0	1	0	0	-24.2300	-5.0600	24.2800	4.4000	0.0000	0.0000	0.0000	0.0000;
	3	137	0.005889	0.038035	0.00726	221.1	0	0	0	0	1	0	0	-27.0000	-5.1800	27.0400	4.7200	0.0000	0.0000	0.0000	0.0000;
	6	5	0.000694	0.003337	0	100	0	0	0	0	1	0	0	-12.5000	-3.5600	12.5000	3.5700	0.0000	0.0000	0.0000	0.0000;
	48	5	0.006246	0.043513	0.00711	221.1	0	0	0	0	1	0	0	-12.8600	-4.8400	12.8700	4.1700	0.0000	0.0000	0.0000	0.0000;
	5	64	0.007877	0.054875	0.00897	221.1	0	0	0	0	1	0	0	-25.3700	-7.7400	25.4200	7.1600	0.0000	0.0000	0.0000	0.0000;
	8	7	0.000634	0.003189	0	100	0	0	0	0	1	0	0	-35.2000	-10.0300	35.2100	10.0800	0.0000	0.0000	0.0000	0.0000;
	7	86	0.003756	0.024259	0.00463	221.1	0	0	0	0	1	0	0	-22.1300	-4.7700	22.1500	4.4400	0.0000	0.0000	0.0000	0.0000;
	7	101	0.003597	0.023232	0.00443	221.1	0	0	0	0	1	0	0	-32.0600	-9.9700	32.1100	9.8000	0.0000	0.0000	0.0000	0.0000;
	7	148	0.008667	0.05598	0.01068	221.1	0	0	0	0	1	0	0	18.9800	4.6600	-18.9500	-5.4800	0.0000	0.0000	0.0000	0.0000;
	10	9	0.000585	0.003967	0	100	0	0	0	0	1	0	0	-63.2900	-18.0400	63.3200	18.2100	0.0000	0.0000	0.0000	0.0000;
	9	124	0.008069	0.055123	0.00938	221.1	0	0	0	0	1	0	0	-66.8400	-15.4300	67.2200	17.1000	0.0000	0.0000	0.0000	0.0000;
	131	9	0.004139	0.026732	0.0051	221.1	0	0	0	0	1	0	0	-2.0900	0.5800	2.0900	-1.0900	0.0000	0.0000	0.0000	0.0000;
	9	141	0.004446	0.03097	0.00506	221.1	0	0	0	0	1	0	0	9.0700	1.2200	-9.0700	-1.6900	0.0000	0.0000	0.0000	0.0000;
	9	193	0.003695	0.025244	0.00429	221.1	0	0	0	0	1	0	0	-7.6500	-2.9200	7.6500	2.5100	0.0000	0.0000	0.0000	0.0000;
	12	11	0.000534	0.003533	0	100	0	0	0	0	1	0	0	-0.4900	-0.1400	0.4900	0.1400	0.0000	0.0000	0.0000	0.0000;
	13	11	0.000619	0.003606	0	100	0	0	0	0	1	0	0	-4.0400	-1.1500	4.0400	1.1500	0.0000	0.0000	0.0000	0.0000;
	11	15	0.010408	0.06722	0.01282	221.1	0	0	0	0	1	0	0	-3.6800	-1.1600	3.6800	-0.2000	0.0000	0.0000	0.0000	0.0000;
	11	93	0.018394	0.128141	0.02095	221.1	0	0	0	0	1	0	0	12.0900	-1.9300	-12.0600	-0.1300	0.0000	0.0000	0.0000	0.0000;
	158	11	0.008519	0.058199	0.0099	221.1	0	0	0	0	1	0	0	12.9500	-2.7700	-12.9400	1.8000	0.0000	0.0000	0.0000	0.0000;
	15	14	0.000637	0.027526	0	300	0	0	1	0	1	0	0	-75.4100	11.7700	75.4500	-10.2800	0.0000	0.0000	0.0000	0.0000;
	14	121	0.007013	0.050098	0.09134	402.36	0	0	0	0	1	0	0	-58.3700	5.4500	58.6000	-13.5400	0.0000	0.0000	0.0000	0.0000;
	14	149	0.009133	0.065244	0.11895	402.36	0	0	0	0	1	0	0	-17.0800	4.8300	17.1100	-17.2000	0.0000	0.0000	0.0000	0.0000;
	16	15	0.000553	0.0032	0	100	0	0	0	0	1	0	0	-71.7000	-20.4400	71.7300	20.6000	0.0000	0.0000	0.0000	0.0000;
	18	17	0.000503	0.003926	0	100	0	0	0	0	1	0	0	-1.1400	-0.3300	1.1400	0.3300	0.0000	0.0000	0.0000	0.0000;
	19	17	0.000514	0.003079	0	100	0	0	0	0	1	0	0	-1.2300	-0.3500	1.2300	0.3500	0.0000	0.0000	0.0000	0.0000;
	20	17	0.000623	0.003339	0	100	0	0	0	0	1	0	0	-1.8100	-0.5200	1.8100	0.5200	0.0000	0.0000	0.0000	0.0000;
	21	17	0.00062	0.00394	0	100	0	0	0	0	1	0	0	-7.3800	-2.1000	7.3800	2.1100	0.0000	0.0000	0.0000	0.0000;
	109	17	0.009789	0.068198	0.01115	221.1	0	0	0	0	1	0	0	23.2400	2.4600	-23.1900	-3.2200	0.0000	0.0000	0.0000	0.0000;
	17	120	0.010316	0.070473	0.01199	221.1	0	0	0	0	1	0	0	11.6200	-0.0800	-11.6100	-1.0200	0.0000	0.0000	0.0000	0.0000;
	23	22	0.000616	0.003222	0	100	0	0	0	0	1	0	0	-2.2600	-0.6400	2.2600	0.6400	0.0000	0.0000	0.0000	0.0000;
	24	22	0.000687	0.003067	0	100	0	0	0	0	1	0	0	-3.8400	-1.0900	3.8400	1.0900	0.0000	0.0000	0.0000	0.0000;
	22	27	0.011379	0.073494	0.01402	221.1	0	0	0	0	1	0	0	3.1400	-2.0700	-3.1400	0.5800	0.0000	0.0000	0.0000	0.0000;
	158	22	0.012701	0.086769	0.01476	221.1	0	0	0	0	1	0	0	9.2600	-1.8400	-9.2500	0.3300	0.0000	0.0000	0.0000	0.0000;
	26	25	0.00061	0.003071	0	100	0	0	0	0	1	0	0	-2.1300	-0.6100	2.1300	0.6100	0.0000	0.0000	0.0000	0.0000;
	25	64	0.007643	0.053244	0.0087	221.1	0	0	0	0	1	0	0	-35.1000	-1.6600	35.1900	1.3700	0.0000	0.0000	0.0000	0.0000;
	199	25	0.009909	0.064003	0.01221	221.1	0	0	0	0	1	0	0	-32.8700	-1.6700	32.9700	1.0600	0.0000	0.0000	0.0000	0.0000;
	28	27	0.000587	0.003964	0	100	0	0	0	0	1	0	0	-3.7400	-1.0700	3.7400	1.0700	0.0000	0.0000	0.0000	0.0000;
	27	93	0.025172	0.175362	0.02867	221.1	0	0	0	0	1	0	0	7.2200	-1.8300	-7.2100	-1.1500	0.0000	0.0000	0.0000	0.0000;
	27	158	0.020429	0.131945	0.02517	221.1	0	0	0	0	1	0	0	-7.8200	0.1900	7.8300	-2.8100	0.0000	0.0000	0.0000	0.0000;
	30	29	0.000694	0.003131	0	100	0	0	0	0	1	0	0	-87.6200	-24.9700	87.6800	25.2300	0.0000	0.0000	0.0000	0.0000;
	124	29	0.005561	0.038742	0.00633	221.1	0	0	0	0	1	0	0	58.6700	16.4300	-58.4700	-15.6400	0.0000	0.0000	0.0000	0.0000;
	29	140	0.007895	0.055004	0.00899	221.1	0	0	0	0	1	0	0	-29.2100	-9.5900	29.2900	9.2000	0.0000	0.0000	0.0000	0.0000;
	32	31	0.000667	0.003884	0	100	0	0	0	0	1	0	0	-0.7000	-0.2000	0.7000	0.2000	0.0000	0.0000	0.0000	0.0000;
	33	31	0.000528	0.003639	0	100	0	0	0	0	1	0	0	-8.8200	-2.5100	8.8200	2.5200	0.0000	0.0000	0.0000	0.0000;
	177	31	0.008406	0.05856	0.00957	221.1	0	0	0	0	1	0	0	11.0800	11.5900	-11.0600	-12.3900	0.0000	0.0000	0.0000	0.0000;
	192	31	0.008088	0.05525	0.0094	221.1	0	0	0	0	1	0	0	-1.5300	-10.5500	1.5400	9.6800	0.0000	0.0000	0.0000	0.0000;
	35	34	0.000575	0.003674	0	100	0	0	0	0	1	0	0	-33.2600	-9.4800	33.2700	9.5200	0.0000	0.0000	0.0000	0.0000;
	34	54	0.006268	0.042819	0.00729	221.1	0	0	0	0	1	0	0	-62.2200	-14.2600	62.4700	15.1800	0.0000	0.0000	0.0000	0.0000;
	34	137	0.006911	0.044639	0.00852	221.1	0	0	0	0	1	0	0	28.9600	4.7400	-28.9000	-5.2500	0.0000	0.0000	0.0000	0.0000;
	37	36	0.000552	0.003328	0	100	0	0	0	0	1	0	0	-4.8900	-1.3900	4.8900	1.3900	0.0000	0.0000	0.0000	0.0000;
	38	36	0.00067	0.003511	0	100	0	0	0	0	1	0	0	-40.8100	-11.6300	40.8200	11.6900	0.0000	0.0000	0.0000	0.0000;
	58	36	0.010889	0.07439	0.01266	221.1	0	0	0	0	1	0	0	6.5900	8.0800	-6.5800	-9.2900	0.0000	0.0000	0.0000	0.0000;
	83	36	0.009615	0.066986	0.01095	221.1	0	0	0	0	1	0	0	39.2800	3.7100	-39.1300	-3.8000	0.0000	0.0000	0.0000	0.0000;
	40	39	0.000505	0.003103	0	100	0	0	0	0	1	0	0	-3.2800	-0.9300	3.2800	0.9300	0.0000	0.0000	0.0000	0.0000;
	39	85	0.008702	0.060625	0.00991	221.1	0	0	0	0	1	0	0	-0.9800	0.1000	0.9800	-1.0900	0.0000	0.0000	0.0000	0.0000;
	159	39	0.007332	0.05108	0.00835	221.1	0	0	0	0	1	0	0	14.1800	3.6900	-14.1600	-4.4200	0.0000	0.0000	0.0000	0.0000;
	41	100	0.004595	0.029676	0.00566	221.1	0	0	0	0	1	0	0	-39.7800	-27.3300	39.8800	27.4100	0.0000	0.0000	0.0000	0.0000;
	41	163	0.003165	0.021623	0.00368	221.1	0	0	0	0	1	0	0	3.1400	11.9500	-3.1400	-12.3000	0.0000	0.0000	0.0000	0.0000;
	41	180	0.009408	0.060766	0.01159	221.1	0	0	0	0	1	0	0	-25.2300	-2.2500	25.2900	1.4300	0.0000	0.0000	0.0000	0.0000;
	44	42	0.012256	0.085383	0.01396	221.1	0	0	0	0	1	0	0	2.8100	-3.6400	-2.8100	2.2400	0.0000	0.0000	0.0000	0.0000;
	181	42	0.008008	0.05579	0.00912	221.1	0	0	0	0	1	0	0	14.2200	6.2900	-14.2000	-7.0900	0.0000	0.0000	0.0000	0.0000;
	43	84	0.007509	0.051295	0.00873	221.1	0	0	0	0	1	0	0	-2.5100	-5.9900	2.5100	5.1400	0.0000	0.0000	0.0000	0.0000;
	43	132	0.011052	0.075503	0.01285	221.1	0	0	0	0	1	0	0	-0.5900	5.1100	0.5900	-6.3500	0.0000	0.0000	0.0000	0.0000;
	44	200	0.014813	0.101195	0.01722	221.1	0	0	0	0	1	0	0	-9.4600	1.7500	9.4700	-3.3900	0.0000	0.0000	0.0000	0.0000;
	46	45	0.000936	0.049195	0	160	0	0	1	0	1	0	0	-33.0300	-4.4300	33.0400	4.9500	0.0000	0.0000	0.0000	0.0000;
	55	45	0.002593	0.018527	0.03378	402.36	0	0	0	0	1	0	0	-75.7300	-7.4900	75.8700	4.9500	0.0000	0.0000	0.0000	0.0000;
	102	45	0.0029	0.020715	0.03777	402.36	0	0	0	0	1	0	0	-39.6500	-2.8600	39.6900	-0.8100	0.0000	0.0000	0.0000	0.0000;
	45	187	0.003474	0.024821	0.04525	402.36	0	0	0	0	1	0	0	-148.6000	-9.0800	149.3300	9.4700	0.0000	0.0000	0.0000	0.0000;
	61	46	0.006971	0.048561	0.00794	221.1	0	0	0	0	1	0	0	-19.8700	-5.5800	19.9000	4.9500	0.0000	0.0000	0.0000	0.0000;
	122	46	0.010129	0.065419	0.01248	221.1	0	0	0	0	1	0	0	-4.4500	1.7000	4.4500	-3.0000	0.0000	0.0000	0.0000	0.0000;
	47	54	0.006678	0.045623	0.00776	221.1	0	0	0	0	1	0	0	21.1200	5.0200	-21.0900	-5.6400	0.0000	0.0000	0.0000	0.0000;
	47	66	0.007339	0.047401	0.00904	221.1	0	0	0	0	1	0	0	-23.5900	-5.7300	23.6300	5.0200	0.0000	0.0000	0.0000	0.0000;
	49	48	0.027149	0.532021	0	28.9	0	0	1	0	1	0	0	4.5300	2.1100	-4.5200	-1.9900	0.0000	0.0000	0.0000	0.0000;
	50	48	0.021719	0.404167	0	28.7	0	0	1	0	1	0	0	4.5300	2.1100	-4.5200	-2.0100	0.0000	0.0000	0.0000	0.0000;
	51	48	0.027149	0.612711	0	24.3	0	0	1	0	1	0	0	4.5300	2.1100	-4.5200	-1.9700	0.0000	0.0000	0.0000	0.0000;
	52	48	0.021719	0.379817	0	24.3	0	0	1	0	1	0	0	4.5300	2.1100	-4.5200	-2.0200	0.0000	0.0000	0.0000	0.0000;
	53	48	0.02121	0.576549	0	35.3	0	0	1	0	1	0	0	9.0700	3.4100	-9.0500	-2.9100	0.0000	0.0000	0.0000	0.0000;
	48	74	0.007959	0.054369	0.00925	221.1	0	0	0	0	1	0	0	37.1400	14.9200	-37.0200	-15.0200	0.0000	0.0000	0.0000	0.0000;
	54	66	0.007051	0.045544	0.00869	221.1	0	0	0	0	1	0	0	-45.6500	-10.7500	45.8000	10.7700	0.0000	0.0000	0.0000	0.0000;
	56	55	0.005152	0.124653	0	160	0	0	1	0	1	0	0	-5.5500	-1.0100	5.5500	1.0500	0.0000	0.0000	0.0000	0.0000;
	81	55	0.005467	0.039054	0.0712	402.36	0	0	0	0	1	0	0	-84.5400	-3.3500	84.9200	-1.4100	0.0000	0.0000	0.0000	0.0000;
	55	102	0.001246	0.008902	0.01623	402.36	0	0	0	0	1	0	0	-65.4900	-11.2100	65.5400	9.8700	0.0000	0.0000	0.0000	0.0000;
	55	112	0.004166	0.029763	0.05426	402.36	0	0	0	0	1	0	0	24.1900	6.8700	-24.1600	-12.3500	0.0000	0.0000	0.0000	0.0000;
	55	128	0.003415	0.024395	0.04448	402.36	0	0	0	0	1	0	0	26.5700	12.1800	-26.5400	-16.6200	0.0000	0.0000	0.0000	0.0000;
	56	103	0.004282	0.02983	0.00488	221.1	0	0	0	0	1	0	0	3.7600	0.5000	-3.7600	-1.0100	0.0000	0.0000	0.0000	0.0000;
	57	159	0.00752	0.051369	0.00874	221.1	0	0	0	0	1	0	0	19.7200	3.7700	-19.6800	-4.4500	0.0000	0.0000	0.0000	0.0000;
	95	58	0.009836	0.063526	0.01212	221.1	0	0	0	0	1	0	0	9.2800	14.3500	-9.2500	-15.4200	0.0000	0.0000	0.0000	0.0000;
	177	58	0.014049	0.095972	0.01633	221.1	0	0	0	0	1	0	0	3.1400	-7.3000	-3.1300	5.6800	0.0000	0.0000	0.0000	0.0000;
	59	119	0.011209	0.072397	0.01381	221.1	0	0	0	0	1	0	0	-8.7700	3.5900	8.7800	-4.8700	0.0000	0.0000	0.0000	0.0000;
	59	139	0.009665	0.062426	0.01191	221.1	0	0	0	0	1	0	0	1.7500	-5.5900	-1.7500	4.4300	0.0000	0.0000	0.0000	0.0000;
	60	97	0.012274	0.079279	0.01512	221.1	0	0	0	0	1	0	0	35.5400	2.2800	-35.3900	-2.8400	0.0000	0.0000	0.0000	0.0000;
	134	60	0.009007	0.062749	0.01026	221.1	0	0	0	0	1	0	0	41.3200	3.8600	-41.1700	-3.8800	0.0000	0.0000	0.0000	0.0000;
	61	103	0.006539	0.045556	0.00745	221.1	0	0	0	0	1	0	0	-8.2700	-2.4400	8.2800	1.6900	0.0000	0.0000	0.0000	0.0000;
	159	62	0.008634	0.058979	0.01003	221.1	0	0	0	0	1	0	0	3.2800	0.1200	-3.2800	-1.1200	0.0000	0.0000	0.0000	0.0000;
	160	62	0.007628	0.053144	0.00869	221.1	0	0	0	0	1	0	0	31.0900	8.3200	-31.0100	-8.6500	0.0000	0.0000	0.0000	0.0000;
	63	66	0.011949	0.083244	0.01361	221.1	0	0	0	0	1	0	0	-57.6800	-1.2800	58.0600	2.4600	0.0000	0.0000	0.0000	0.0000;
	63	184	0.017963	0.116023	0.02214	221.1	0	0	0	0	1	0	0	44.9000	-2.3600	-44.5600	2.2500	0.0000	0.0000	0.0000	0.0000;
	65	64	0.00128	0.10157	0	195.5	0	0	1	0	1	0	0	60.6600	12.1200	-60.6100	-8.5300	0.0000	0.0000	0.0000	0.0000;
	67	66	0.020951	0.144786	0	30	0	0	1	0	1	0	0	4.7000	2.1900	-4.6900	-2.1500	0.0000	0.0000	0.0000	0.0000;
	68	66	0.00689	0.264997	0	73	0	0	1	0	1	0	0	27.9200	1.8900	-27.8700	0.0300	0.0000	0.0000	0.0000	0.0000;
	69	66	0.00441	0.09499	0	70.5	0	0	1	0	1	0	0	27.9200	3.6600	-27.8900	-2.9600	0.0000	0.0000	0.0000	0.0000;
	70	66	0.00689	0.199449	0	70.5	0	0	1	0	1	0	0	27.9200	1.9500	-27.8700	-0.5100	0.0000	0.0000	0.0000	0.0000;
	71	66	0.003528	0.081544	0	68	0	0	1	0	1	0	0	27.9200	4.4600	-27.8900	-3.8600	0.0000	0.0000	0.0000	0.0000;
	72	66	0.003528	0.074599	0	68	0	0	1	0	1	0	0	27.9200	4.8200	-27.8900	-4.2700	0.0000	0.0000	0.0000	0.0000;
	73	66	0.00689	0.146423	0	65	0	0	1	0	1	0	0	27.9200	2.2100	-27.8700	-1.1400	0.0000	0.0000	0.0000	0.0000;
	66	158	0.004993	0.032251	0.00615	221.1	0	0	0	0	1	0	0	44.4900	-3.3900	-44.4000	3.3300	0.0000	0.0000	0.0000	0.0000;
	74	190	0.008894	0.06076	0.01034	221.1	0	0	0	0	1	0	0	7.5000	6.6100	-7.4900	-7.6000	0.0000	0.0000	0.0000	0.0000;
	76	75	0.038464	0.784328	0	24.3	0	0	1	0	1	0	0	1.2000	2.0400	-1.2000	-2.0000	0.0000	0.0000	0.0000	0.0000;
	77	75	0.08013	2.192105	0	7.4	0	0	1	0	1	0	0	0.7200	1.1900	-0.7200	-1.1500	0.0000	0.0000	0.0000	0.0000;
	78	75	0.008544	0.181406	0	65	0	0	1	0	1	0	0	0.0000	0.0000	0.0000	0.0000	0.0000	0.0000	0.0000	0.0000;
	79	75	0.01068	0.277774	0	62.1	0	0	1	0	1	0	0	0.0000	0.0000	0.0000	0.0000	0.0000	0.0000	0.0000	0.0000;
	108	75	0.010988	0.070969	0.01354	221.1	0	0	0	0	1	0	0	-20.3200	-4.6100	20.3700	3.5200	0.0000	0.0000	0.0000	0.0000;
	75	157	0.013487	0.087112	0.01662	221.1	0	0	0	0	1	0	0	-23.7900	-1.8900	23.8600	0.6600	0.0000	0.0000	0.0000	0.0000;
	80	100	0.021463	0.149525	0.02444	221.1	0	0	0	0	1	0	0	8.1100	-7.2500	-8.0900	4.8500	0.0000	0.0000	0.0000	0.0000;
	80	143	0.020594	0.14347	0.02345	221.1	0	0	0	0	1	0	0	-10.4900	6.5800	10.5300	-8.7500	0.0000	0.0000	0.0000	0.0000;
	82	81	0.00097	0.042371	0	250	0	0	1	0	1	0	0	-55.3200	-9.8800	55.3500	11.1800	0.0000	0.0000	0.0000	0.0000;
	81	178	0.006598	0.047137	0.08594	402.36	0	0	0	0	1	0	0	29.1900	-7.8300	-29.1400	-0.7200	0.0000	0.0000	0.0000	0.0000;
	82	195	0.003845	0.026265	0.00447	221.1	0	0	0	0	1	0	0	43.3600	6.4700	-43.2900	-6.4400	0.0000	0.0000	0.0000	0.0000;
	83	146	0.005382	0.036767	0.00626	221.1	0	0	0	0	1	0	0	-12.1500	-11.7400	12.1700	11.1900	0.0000	0.0000	0.0000	0.0000;
	83	186	0.00792	0.055174	0.00902	221.1	0	0	0	0	1	0	0	-31.4200	6.8000	31.5000	-7.1700	0.0000	0.0000	0.0000	0.0000;
	84	113	0.006652	0.04544	0.00773	221.1	0	0	0	0	1	0	0	-8.0700	-6.7300	8.0800	6.0000	0.0000	0.0000	0.0000	0.0000;
	85	120	0.007786	0.050291	0.00959	221.1	0	0	0	0	1	0	0	-8.7200	-1.1200	8.7300	0.2000	0.0000	0.0000	0.0000	0.0000;
	86	101	0.00512	0.033072	0.00631	221.1	0	0	0	0	1	0	0	-6.2900	-3.8700	6.2900	3.2700	0.0000	0.0000	0.0000	0.0000;
	142	86	0.003387	0.023141	0.00394	221.1	0	0	0	0	1	0	0	10.3700	-1.8500	-10.3700	1.4900	0.0000	0.0000	0.0000	0.0000;
	86	193	0.006606	0.042664	0.00814	221.1	0	0	0	0	1	0	0	-17.7200	-5.5400	17.7500	4.8900	0.0000	0.0000	0.0000	0.0000;
	88	87	0.000832	0.034189	0	350	0	0	1	0	1	0	0	-113.2300	-13.0600	113.3300	17.3500	0.0000	0.0000	0.0000	0.0000;
	149	87	0.001621	0.011579	0.02111	402.36	0	0	0	0	1	0	0	113.5300	16.5800	-113.3300	-17.3500	0.0000	0.0000	0.0000	0.0000;
	88	150	0.00557	0.035973	0.00686	221.1	0	0	0	0	1	0	0	-42.2300	-8.9500	42.3300	8.8800	0.0000	0.0000	0.0000	0.0000;
	176	88	0.003859	0.024922	0.00475	221.1	0	0	0	0	1	0	0	-46.8200	-12.2500	46.9100	12.3300	0.0000	0.0000	0.0000	0.0000;
	88	194	0.004258	0.029088	0.00495	221.1	0	0	0	0	1	0	0	28.8900	-13.0200	-28.8500	12.7800	0.0000	0.0000	0.0000	0.0000;
	90	89	0.0601	2.279922	0	8.6	0	0	1	0	1	0	0	0.9600	1.1100	-0.9600	-1.0700	0.0000	0.0000	0.0000	0.0000;
	91	89	0.024614	0.503424	0	32	0	0	1	0	1	0	0	1.5000	2.5500	-1.5000	-2.5100	0.0000	0.0000	0.0000	0.0000;
	92	89	0.019539	0.36204	0	35.3	0	0	1	0	1	0	0	0.0000	0.0000	0.0000	0.0000	0.0000	0.0000	0.0000	0.0000;
	89	95	0.008734	0.056409	0.01076	221.1	0	0	0	0	1	0	0	13.4200	-16.7700	-13.3900	15.8900	0.0000	0.0000	0.0000	0.0000;
	188	89	0.00805	0.051996	0.00992	221.1	0	0	0	0	1	0	0	97.7500	7.9000	-97.0100	-4.1800	0.0000	0.0000	0.0000	0.0000;
	94	93	0.01068	0.280602	0	62.1	0	0	1	0	1	0	0	18.0000	2.0100	-17.9700	-1.1500	0.0000	0.0000	0.0000	0.0000;
	93	191	0.022088	0.142662	0.02722	221.1	0	0	0	0	1	0	0	32.3400	1.0400	-32.1200	-2.5200	0.0000	0.0000	0.0000	0.0000;
	122	96	0.01062	0.073986	0.01209	221.1	0	0	0	0	1	0	0	43.0400	0.5900	-42.8600	-0.5600	0.0000	0.0000	0.0000	0.0000;
	96	143	0.015858	0.102423	0.01954	221.1	0	0	0	0	1	0	0	54.2000	4.4700	-53.7400	-3.5700	0.0000	0.0000	0.0000	0.0000;
	96	188	0.010903	0.070421	0.01343	221.1	0	0	0	0	1	0	0	-15.3900	-5.0700	15.4100	3.8300	0.0000	0.0000	0.0000	0.0000;
	97	200	0.01318	0.085125	0.01624	221.1	0	0	0	0	1	0	0	24.5200	-0.2600	-24.4400	-0.8800	0.0000	0.0000	0.0000	0.0000;
	99	98	0.000643	0.030516	0	250	0	0	1	0	1	0	0	-84.0200	-20.6000	84.0700	22.8600	0.0000	0.0000	0.0000	0.0000;
	98	123	0.0047	0.033574	0.06121	402.36	0	0	0	0	1	0	0	-84.0700	-22.8600	84.4100	18.9800	0.0000	0.0000	0.0000	0.0000;
	99	142	0.007605	0.052982	0.00866	221.1	0	0	0	0	1	0	0	65.9800	15.4500	-65.6300	-13.9000	0.0000	0.0000	0.0000	0.0000;
	100	174	0.010698	0.074531	0.01218	221.1	0	0	0	0	1	0	0	-27.4100	9.5800	27.5000	-10.2500	0.0000	0.0000	0.0000	0.0000;
	100	179	0.007093	0.049413	0.00808	221.1	0	0	0	0	1	0	0	-37.5300	18.6500	37.6500	-18.6600	0.0000	0.0000	0.0000	0.0000;
	100	184	0.012745	0.08879	0.01451	221.1	0	0	0	0	1	0	0	-27.2000	6.3200	27.3000	-7.1700	0.0000	0.0000	0.0000	0.0000;
	110	101	0.00196	0.012657	0.00241	221.1	0	0	0	0	1	0	0	5.4700	0.1200	-5.4600	-0.3600	0.0000	0.0000	0.0000	0.0000;
	101	117	0.005245	0.035833	0.0061	221.1	0	0	0	0	1	0	0	-30.0200	-12.9500	30.0800	12.7300	0.0000	0.0000	0.0000	0.0000;
	101	141	0.003144	0.020305	0.00387	221.1	0	0	0	0	1	0	0	-3.6800	0.0200	3.6800	-0.4000	0.0000	0.0000	0.0000	0.0000;
	103	102	0.001709	0.054578	0	250	0	0	1	0	1	0	0	-25.2100	-5.8400	25.2200	6.1900	0.0000	0.0000	0.0000	0.0000;
	104	102	0.0021	0.087749	0	130	0	0	1	0	1	0	0	52.0000	15.9400	-51.9400	-13.5400	0.0000	0.0000	0.0000	0.0000;
	105	102	0.00097	0.059419	0	260	0	0	1	0	1	0	0	63.0000	23.8200	-62.9600	-21.3300	0.0000	0.0000	0.0000	0.0000;
	102	128	0.0027	0.019292	0.03517	402.36	0	0	0	0	1	0	0	63.7900	21.6600	-63.6700	-24.5000	0.0000	0.0000	0.0000	0.0000;
	103	106	0.007749	0.053987	0.00883	221.1	0	0	0	0	1	0	0	20.6900	5.1600	-20.6600	-5.8400	0.0000	0.0000	0.0000	0.0000;
	130	106	0.006991	0.047761	0.00813	221.1	0	0	0	0	1	0	0	-17.8200	-5.7200	17.8400	5.0400	0.0000	0.0000	0.0000	0.0000;
	107	113	0.006748	0.046101	0.00784	221.1	0	0	0	0	1	0	0	-39.4400	-9.5700	39.5500	9.5500	0.0000	0.0000	0.0000	0.0000;
	107	129	0.005168	0.035307	0.00601	221.1	0	0	0	0	1	0	0	-43.3300	-9.5500	43.4300	9.6500	0.0000	0.0000	0.0000	0.0000;
	192	107	0.003939	0.025441	0.00485	221.1	0	0	0	0	1	0	0	-10.8000	0.9400	10.8100	-1.3900	0.0000	0.0000	0.0000	0.0000;
	108	198	0.024792	0.160126	0.03055	221.1	0	0	0	0	1	0	0	6.3600	0.6300	-6.3400	-3.6500	0.0000	0.0000	0.0000	0.0000;
	186	109	0.008774	0.059942	0.0102	221.1	0	0	0	0	1	0	0	31.5900	4.3800	-31.5100	-4.8200	0.0000	0.0000	0.0000	0.0000;
	110	193	0.003444	0.022243	0.00424	221.1	0	0	0	0	1	0	0	-21.5700	-4.7100	21.5800	4.4000	0.0000	0.0000	0.0000	0.0000;
	163	111	0.005281	0.034111	0.00651	221.1	0	0	0	0	1	0	0	12.1700	3.9400	-12.1600	-4.5500	0.0000	0.0000	0.0000	0.0000;
	111	175	0.00795	0.055386	0.00905	221.1	0	0	0	0	1	0	0	-2.0700	0.4900	2.0700	-1.4100	0.0000	0.0000	0.0000	0.0000;
	113	112	0.002077	0.058615	0	350	0	0	1	0	1	0	0	-107.7100	-27.1700	107.9700	34.3900	0.0000	0.0000	0.0000	0.0000;
	114	112	0.06	0.434013	0	20	0	0	1	0	1	0	0	1.0800	0.3600	-1.0800	-0.3500	0.0000	0.0000	0.0000	0.0000;
	115	112	0.00128	0.062771	0	200	0	0	1	0	1	0	0	75.1200	31.7000	-75.0400	-27.8400	0.0000	0.0000	0.0000	0.0000;
	128	112	0.001295	0.009255	0.01687	402.36	0	0	0	0	1	0	0	7.6900	-7.9000	-7.6900	6.1500	0.0000	0.0000	0.0000	0.0000;
	113	192	0.005418	0.034995	0.00668	221.1	0	0	0	0	1	0	0	60.0800	11.6200	-59.8700	-10.9700	0.0000	0.0000	0.0000	0.0000;
	117	116	0.000517	0.034943	0	300	0	0	1	0	1	0	0	-125.2100	-27.5600	125.2900	33.3100	0.0000	0.0000	0.0000	0.0000;
	133	116	0.00389	0.027793	0.05067	402.36	0	0	0	0	1	0	0	125.9300	32.5900	-125.2900	-33.3100	0.0000	0.0000	0.0000	0.0000;
	117	132	0.011912	0.082984	0.01357	221.1	0	0	0	0	1	0	0	40.7700	5.1200	-40.5700	-5.0500	0.0000	0.0000	0.0000	0.0000;
	117	162	0.01617	0.104442	0.01993	221.1	0	0	0	0	1	0	0	3.8200	-4.7000	-3.8200	2.7300	0.0000	0.0000	0.0000	0.0000;
	131	118	0.00718	0.046377	0.00885	221.1	0	0	0	0	1	0	0	-42.7700	-13.3700	42.9100	13.4200	0.0000	0.0000	0.0000	0.0000;
	118	134	0.011598	0.0808	0.01321	221.1	0	0	0	0	1	0	0	-50.3800	-12.6000	50.6900	13.4000	0.0000	0.0000	0.0000	0.0000;
	118	198	0.009487	0.064809	0.01103	221.1	0	0	0	0	1	0	0	1.6200	-2.4900	-1.6200	1.3800	0.0000	0.0000	0.0000	0.0000;
	122	121	0.000786	0.063023	0	200	0	0	1	0	1	0	0	-59.7300	-8.3200	59.7600	10.4900	0.0000	0.0000	0.0000	0.0000;
	121	178	0.008903	0.063604	0.11596	402.36	0	0	0	0	1	0	0	125.7200	1.8900	-124.3900	-4.6200	0.0000	0.0000	0.0000	0.0000;
	187	121	0.001063	0.007593	0.01384	402.36	0	0	0	0	1	0	0	244.6700	1.6000	-244.0700	1.1700	0.0000	0.0000	0.0000	0.0000;
	124	123	0.000329	0.017481	0	400	0	0	1	0	1	0	0	-277.6100	-68.4300	277.8700	82.4900	0.0000	0.0000	0.0000	0.0000;
	125	123	0.00448	0.104562	0	170	0	0	1	0	1	0	0	130.0500	20.3900	-129.3300	-3.6300	0.0000	0.0000	0.0000	0.0000;
	126	123	0.00148	0.066043	0	170	0	0	1	0	1	0	0	130.0500	30.3500	-129.8100	-19.4600	0.0000	0.0000	0.0000	0.0000;
	127	123	0.001	0.031691	0	170	0	0	1	0	1	0	0	130.0500	56.8100	-129.8600	-50.9100	0.0000	0.0000	0.0000	0.0000;
	123	133	0.001459	0.010423	0.019	402.36	0	0	0	0	1	0	0	-1.6300	-20.9500	1.6300	19.0000	0.0000	0.0000	0.0000	0.0000;
	156	123	0.001117	0.007981	0.01455	402.36	0	0	0	0	1	0	0	-28.3400	5.0500	28.3500	-6.5100	0.0000	0.0000	0.0000	0.0000;
	124	193	0.006577	0.04582	0.00749	221.1	0	0	0	0	1	0	0	76.6300	19.3300	-76.2200	-17.2600	0.0000	0.0000	0.0000	0.0000;
	129	128	0.000753	0.044453	0	250	0	0	1	0	1	0	0	-149.1900	-39.8000	149.3700	50.4100	0.0000	0.0000	0.0000	0.0000;
	128	133	0.009554	0.068257	0.12444	402.36	0	0	0	0	1	0	0	-66.8500	-1.3900	67.2600	-8.6700	0.0000	0.0000	0.0000	0.0000;
	130	144	0.022678	0.157988	0.02583	221.1	0	0	0	0	1	0	0	11.7900	4.0000	-11.7600	-6.3800	0.0000	0.0000	0.0000	0.0000;
	134	133	0.0002	0.013328	0	400	0	0	1	0	1	0	0	-200.4900	-30.2800	200.5700	35.5600	0.0000	0.0000	0.0000	0.0000;
	135	133	0.00043	0.033512	0	580	0	0	1	0	1	0	0	216.7700	53.4700	-216.5700	-38.0300	0.0000	0.0000	0.0000	0.0000;
	136	133	0.00043	0.027478	0	580	0	0	1	0	1	0	0	196.4200	61.4900	-196.2500	-50.7300	0.0000	0.0000	0.0000	0.0000;
	156	133	0.001958	0.013985	0.0255	402.36	0	0	0	0	1	0	0	-17.4200	-12.8900	17.4300	10.2800	0.0000	0.0000	0.0000	0.0000;
	134	140	0.010445	0.071357	0.01214	221.1	0	0	0	0	1	0	0	41.6500	12.7400	-41.4600	-12.6700	0.0000	0.0000	0.0000	0.0000;
	134	186	0.014463	0.093412	0.01782	221.1	0	0	0	0	1	0	0	66.8300	0.2800	-66.2100	1.9000	0.0000	0.0000	0.0000	0.0000;
	138	139	0.026477	0.184455	0.03015	221.1	0	0	0	0	1	0	0	8.4200	4.4900	-8.4000	-7.3200	0.0000	0.0000	0.0000	0.0000;
	138	195	0.008728	0.05637	0.01075	221.1	0	0	0	0	1	0	0	-11.7200	-5.4300	11.7300	4.4200	0.0000	0.0000	0.0000	0.0000;
	141	148	0.01019	0.065817	0.01256	221.1	0	0	0	0	1	0	0	28.6300	7.4200	-28.5400	-8.0500	0.0000	0.0000	0.0000	0.0000;
	141	193	0.002896	0.018702	0.00357	221.1	0	0	0	0	1	0	0	-25.3500	-5.9200	25.3700	5.7000	0.0000	0.0000	0.0000	0.0000;
	162	144	0.006962	0.048504	0.00793	221.1	0	0	0	0	1	0	0	1.6700	-3.3400	-1.6700	2.5500	0.0000	0.0000	0.0000	0.0000;
	145	176	0.008799	0.060111	0.01023	221.1	0	0	0	0	1	0	0	-16.1100	-4.3800	16.1300	3.5000	0.0000	0.0000	0.0000	0.0000;
	185	145	0.010839	0.075509	0.01234	221.1	0	0	0	0	1	0	0	12.2300	2.5400	-12.2200	-3.6900	0.0000	0.0000	0.0000	0.0000;
	147	146	0.0025	0.10181	0	130.6	0	0	1	0	1	0	0	42.0000	21.4100	-41.9500	-19.3100	0.0000	0.0000	0.0000	0.0000;
	146	177	0.011064	0.07708	0.0126	221.1	0	0	0	0	1	0	0	29.7800	8.1200	-29.6800	-8.6900	0.0000	0.0000	0.0000	0.0000;
	150	149	0.000412	0.020251	0	400	0	0	1	0	1	0	0	-182.7600	-14.6700	182.8900	21.1700	0.0000	0.0000	0.0000	0.0000;
	151	149	0.02267	0.625521	0	20	0	0	1	0	1	0	0	5.4000	1.9400	-5.3900	-1.7500	0.0000	0.0000	0.0000	0.0000;
	152	149	0.00249	0.141687	0	100	0	0	1	0	1	0	0	77.2200	11.6600	-77.0800	-3.6700	0.0000	0.0000	0.0000	0.0000;
	153	149	0.00549	0.184603	0	100	0	0	1	0	1	0	0	77.2200	9.8000	-76.9100	0.5400	0.0000	0.0000	0.0000	0.0000;
	154	149	0.00249	0.10294	0	100	0	0	1	0	1	0	0	77.2200	13.4700	-77.0800	-7.6200	0.0000	0.0000	0.0000	0.0000;
	155	149	0.00249	0.099835	0	100	0	0	1	0	1	0	0	77.2200	13.7100	-77.0800	-8.0400	0.0000	0.0000	0.0000	0.0000;
	185	150	0.013458	0.091934	0.01564	221.1	0	0	0	0	1	0	0	-29.6500	-7.5100	29.7800	6.7100	0.0000	0.0000	0.0000	0.0000;
	194	150	0.003138	0.021435	0.00365	221.1	0	0	0	0	1	0	0	-110.2900	3.0500	110.6500	-0.9300	0.0000	0.0000	0.0000	0.0000;
	157	156	0.000592	0.045654	0	300	0	0	1	0	1	0	0	-45.7500	-6.8900	45.7600	7.8300	0.0000	0.0000	0.0000	0.0000;
	161	160	0.00139	0.080288	0	180.2	0	0	1	0	1	0	0	0.0000	0.0000	0.0000	0.0000	0.0000	0.0000	0.0000	0.0000;
	160	181	0.004296	0.029345	0.00499	221.1	0	0	0	0	1	0	0	-31.0900	-8.3200	31.1300	8.1100	0.0000	0.0000	0.0000	0.0000;
	164	163	0.008207	0.11301	0	58.1	0	0	1	0	1	0	0	0.0000	0.0000	0.0000	0.0000	0.0000	0.0000	0.0000	0.0000;
	165	163	0.0074	0.301657	0	65	0	0	1	0	1	0	0	0.0000	0.0000	0.0000	0.0000	0.0000	0.0000	0.0000	0.0000;
	166	163	0.016368	0.382075	0	42	0	0	1	0	1	0	0	0.0000	0.0000	0.0000	0.0000	0.0000	0.0000	0.0000	0.0000;
	167	163	0.010476	0.196499	0	42	0	0	1	0	1	0	0	2.8200	4.7800	-2.8200	-4.7200	0.0000	0.0000	0.0000	0.0000;
	168	163	0.018	0.490983	0	40	0	0	1	0	1	0	0	0.0000	0.0000	0.0000	0.0000	0.0000	0.0000	0.0000	0.0000;
	169	163	0.016368	0.396417	0	40	0	0	1	0	1	0	0	0.0000	0.0000	0.0000	0.0000	0.0000	0.0000	0.0000	0.0000;
	170	163	0.016368	0.374902	0	35.6	0	0	1	0	1	0	0	2.8200	4.7800	-2.8200	-4.6700	0.0000	0.0000	0.0000	0.0000;
	163	179	0.00579	0.039557	0.00673	221.1	0	0	0	0	1	0	0	-77.3300	-3.3200	77.6700	4.9300	0.0000	0.0000	0.0000	0.0000;
	171	190	0.009866	0.0674	0.01147	221.1	0	0	0	0	1	0	0	18.9500	-0.9900	-18.9200	0.0700	0.0000	0.0000	0.0000	0.0000;
	195	171	0.011644	0.081116	0.01326	221.1	0	0	0	0	1	0	0	31.5600	2.0200	-31.4500	-2.5700	0.0000	0.0000	0.0000	0.0000;
	180	172	0.015296	0.106558	0.01742	221.1	0	0	0	0	1	0	0	-0.0800	-1.2800	0.0800	-0.5200	0.0000	0.0000	0.0000	0.0000;
	199	172	0.024005	0.155042	0.02958	221.1	0	0	0	0	1	0	0	8.7800	-1.0100	-8.7600	-1.9500	0.0000	0.0000	0.0000	0.0000;
	173	174	0.015373	0.099293	0.01894	221.1	0	0	0	0	1	0	0	-27.9400	-4.9800	28.0600	3.8000	0.0000	0.0000	0.0000	0.0000;
	173	175	0.008572	0.055363	0.01056	221.1	0	0	0	0	1	0	0	13.8800	0.9800	-13.8700	-1.9500	0.0000	0.0000	0.0000	0.0000;
	174	188	0.017952	0.12264	0.02087	221.1	0	0	0	0	1	0	0	-60.0300	5.1700	60.6600	-3.0700	0.0000	0.0000	0.0000	0.0000;
	179	178	0.000495	0.036157	0	250	0	0	1	0	1	0	0	-153.4200	2.8700	153.5300	5.3400	0.0000	0.0000	0.0000	0.0000;
	180	191	0.026393	0.183866	0.03006	221.1	0	0	0	0	1	0	0	-20.3500	-1.6000	20.4500	-0.8100	0.0000	0.0000	0.0000	0.0000;
	180	199	0.012185	0.078698	0.01501	221.1	0	0	0	0	1	0	0	-17.3600	-2.1100	17.4000	0.7800	0.0000	0.0000	0.0000	0.0000;
	182	181	0.01099	0.297746	0	60.3	0	0	1	0	1	0	0	17.5000	8.1600	-17.4600	-7.1300	0.0000	0.0000	0.0000	0.0000;
	183	181	0.004627	0.114254	0	65	0	0	1	0	1	0	0	26.6000	12.4000	-26.5600	-11.4700	0.0000	0.0000	0.0000	0.0000;
	181	194	0.004395	0.028384	0.00542	221.1	0	0	0	0	1	0	0	-78.1900	-17.7200	78.4600	18.9400	0.0000	0.0000	0.0000	0.0000;
	188	187	0.001394	0.044762	0	400	0	0	1	0	1	0	0	-173.8200	-8.6600	174.2200	21.5400	0.0000	0.0000	0.0000	0.0000;
	189	187	0.0003	0.007815	0	740	0	0	1	0	1	0	0	569.1300	56.2300	-568.2200	-32.6000	0.0000	0.0000	0.0000	0.0000;
	196	195	0.00285	0.060038	0	87.7	0	0	1	0	1	0	0	0.0000	0.0000	0.0000	0.0000	0.0000	0.0000	0.0000	0.0000;
	197	195	0.00285	0.191484	0	87.7	0	0	1	0	1	0	0	0.0000	0.0000	0.0000	0.0000	0.0000	0.0000	0.0000	0.0000;
];

%%-----  OPF Data  -----%%
%% generator cost data
%	1	startup	shutdown	n	x1	y1	...	xn	yn
%	2	startup	shutdown	n	c(n-1)	...	c0
mpc.gencost = [
	2	0	0	3	0.002	25	236.12;
	2	0	0	3	0.002	23	236.12;
	2	0	0	3	0.002	25	236.12;
	2	0	0	3	0.002	25	236.12;
	2	0	0	3	0.002	25	236.24;
	2	0	0	3	0	0	0;
	2	0	0	3	0.002	19	236.13;
	2	0	0	3	0.002	19	236.74;
	2	0	0	3	0.002	19	236.74;
	2	0	0	3	0.002	19	236.74;
	2	0	0	3	0.002	19	236.74;
	2	0	0	3	0.002	19	236.74;
	2	0	0	3	0.002	19	236.74;
	2	0	0	3	0.002	23.157	606;
	2	0	0	3	0.002	23.146	603.6;
	2	0	0	3	0.002	23.252	627;
	2	0	0	3	0.002	23.252	627;
	2	0	0	3	0.002	23.152	604.8;
	2	0	0	3	0.002	23.164	607.5;
	2	0	0	3	0.002	23.173	609.45;
	2	0	0	3	0.002	19	236.48;
	2	0	0	3	0	0	0;
	2	0	0	3	0	0	0;
	2	0	0	3	0	0	0;
	2	0	0	3	0	0	0;
	2	0	0	3	0.002	19	610.14;
	2	0	0	3	0.002	19	610.14;
	2	0	0	3	0.002	19	610.14;
	2	0	0	3	0.002	19	1261.33;
	2	0	0	3	0.002	19	1261.33;
	2	0	0	3	0	0	0;
	2	0	0	3	0.002	19	236.14;
	2	0	0	3	0.002	19	253.01;
	2	0	0	3	0.002	19	253.01;
	2	0	0	3	0.002	19	253.01;
	2	0	0	3	0.002	19	253.01;
	2	0	0	3	0.002	24.07	807.9;
	2	0	0	3	0.002	23.211	618;
	2	0	0	3	0.002	23.306	639;
	2	0	0	3	0.002	23.194	614.1;
	2	0	0	3	0.002	23.194	614.1;
	2	0	0	3	0.002	23.194	614.1;
	2	0	0	3	0.002	23.194	614.1;
	2	0	0	3	0.002	23.194	614.1;
	2	0	0	3	0.002	19	236.47;
	2	0	0	3	0.002	19	236.71;
	2	0	0	3	0	6.71	1272.13;
	2	0	0	3	0.002	23.588	701.25;
	2	0	0	3	0.002	23.588	701.25;
];

%% bus names
mpc.bus_name = {
	'CREVE COEUR 0';
	'CREVE COEUR 1';
	'ILLIOPOLIS 0';
	'ILLIOPOLIS 1';
	'PAXTON 2 0';
	'PAXTON 2 1';
	'PEORIA 9 0';
	'PEORIA 9 1';
	'PEORIA 8 0';
	'PEORIA 8 1';
	'LOVINGTON 0';
	'LOVINGTON 1';
	'LOVINGTON 2';
	'DECATUR 3 0';
	'DECATUR 3 1';
	'DECATUR 3 2';
	'MASON CITY 0';
	'MASON CITY 1';
	'MASON CITY 2';
	'MASON CITY 3';
	'MASON CITY 4';
	'BETHANY 0';
	'BETHANY 1';
	'BETHANY 2';
	'RANKIN 0';
	'RANKIN 1';
	'WINDSOR 0';
	'WINDSOR 1';
	'PEKIN 2 0';
	'PEKIN 2 1';
	'HEYWORTH 0';
	'HEYWORTH 1';
	'HEYWORTH 2';
	'DECATUR 2 0';
	'DECATUR 2 1';
	'LINCOLN 0';
	'LINCOLN 1';
	'LINCOLN 2';
	'SHERMAN 0';
	'SHERMAN 1';
	'URBANA 2 0';
	'SPRINGFIELD 8 0';
	'CARLOCK 0';
	'PLEASANT PLAINS 0';
	'LE ROY 0';
	'LE ROY 1';
	'DECATUR 1 0';
	'RANTOUL 2 0';
	'RANTOUL 2 1';
	'RANTOUL 2 2';
	'RANTOUL 2 3';
	'RANTOUL 2 4';
	'RANTOUL 2 5';
	'MACON 0';
	'ELLSWORTH 2 0';
	'ELLSWORTH 2 1';
	'MOUNT PULASKI 0';
	'WAPELLA 0';
	'ROANOKE 0';
	'GREEN VALLEY 0';
	'BLOOMINGTON 3 0';
	'SPRINGFIELD 7 0';
	'BEMENT 0';
	'PAXTON 1 0';
	'PAXTON 1 1';
	'MOUNT ZION 0';
	'MOUNT ZION 1';
	'MOUNT ZION 2';
	'MOUNT ZION 3';
	'MOUNT ZION 4';
	'MOUNT ZION 5';
	'MOUNT ZION 6';
	'MOUNT ZION 7';
	'RANTOUL 1 0';
	'BRIMFIELD 0';
	'BRIMFIELD 1';
	'BRIMFIELD 2';
	'BRIMFIELD 3';
	'BRIMFIELD 4';
	'WELDON 0';
	'GIBSON CITY 2 0';
	'GIBSON CITY 2 1';
	'MINIER 0';
	'HUDSON 0';
	'ATHENS 0';
	'PEORIA HEIGHTS 0';
	'SPRINGFIELD 6 0';
	'SPRINGFIELD 6 1';
	'CLINTON 3 0';
	'CLINTON 3 1';
	'CLINTON 3 2';
	'CLINTON 3 3';
	'TUSCOLA 2 0';
	'TUSCOLA 2 1';
	'KENNEY 0';
	'MANSFIELD 0';
	'MANITO 0';
	'DUNLAP 0';
	'DUNLAP 1';
	'CHAMPAIGN 3 0';
	'PEORIA 7 0';
	'ELLSWORTH 1 0';
	'ELLSWORTH 1 1';
	'ELLSWORTH 1 2';
	'ELLSWORTH 1 3';
	'TOWANDA 0';
	'BLOOMINGTON 2 0';
	'PRINCEVILLE 0';
	'DELAVAN 0';
	'PEORIA 6 0';
	'SAVOY 0';
	'NORMAL 2 0';
	'NORMAL 2 1';
	'NORMAL 2 2';
	'NORMAL 2 3';
	'EAST PEORIA 0';
	'EAST PEORIA 1';
	'HANNA CITY 0';
	'METAMORA 0';
	'GREENVIEW 0';
	'CLINTON 2 0';
	'CLINTON 2 1';
	'BARTONVILLE 0';
	'BARTONVILLE 1';
	'BARTONVILLE 2';
	'BARTONVILLE 3';
	'BARTONVILLE 4';
	'NORMAL 1 0';
	'NORMAL 1 1';
	'LEXINGTON 0';
	'PEORIA 5 0';
	'MORTON 0';
	'PEKIN 1 0';
	'PEKIN 1 1';
	'PEKIN 1 2';
	'PEKIN 1 3';
	'NIANTIC 0';
	'COLFAX 0';
	'EL PASO 0';
	'TREMONT 0';
	'PEORIA 4 0';
	'PEORIA 3 0';
	'CHAMPAIGN 2 0';
	'EUREKA 0';
	'CHATHAM 0';
	'HOPEDALE 2 0';
	'HOPEDALE 2 1';
	'WASHINGTON 0';
	'SPRINGFIELD 5 0';
	'SPRINGFIELD 5 1';
	'SPRINGFIELD 5 2';
	'SPRINGFIELD 5 3';
	'SPRINGFIELD 5 4';
	'SPRINGFIELD 5 5';
	'SPRINGFIELD 5 6';
	'PEORIA 2 0';
	'PEORIA 2 1';
	'MT ZION 0';
	'BUFFALO 0';
	'SPRINGFIELD 4 0';
	'SPRINGFIELD 4 1';
	'CONGERVILLE 0';
	'CHAMPAIGN 1 0';
	'CHAMPAIGN 1 1';
	'CHAMPAIGN 1 2';
	'CHAMPAIGN 1 3';
	'CHAMPAIGN 1 4';
	'CHAMPAIGN 1 5';
	'CHAMPAIGN 1 6';
	'CHAMPAIGN 1 7';
	'FISHER 0';
	'HOMER 0';
	'TUSCOLA 1 0';
	'WHITE HEATH 0';
	'TOLONO 0';
	'SPRINGFIELD 3 0';
	'MACKINAW 0';
	'URBANA 1 0';
	'URBANA 1 1';
	'SAINT JOSEPH 0';
	'SPRINGFIELD 2 0';
	'SPRINGFIELD 2 1';
	'SPRINGFIELD 2 2';
	'MONTICELLO 0';
	'AUBURN 0';
	'HOPEDALE 1 0';
	'CLINTON 1 0';
	'CLINTON 1 1';
	'CLINTON 1 2';
	'MAHOMET 0';
	'VILLA GROVE 0';
	'BLOOMINGTON 1 0';
	'PEORIA 1 0';
	'SPRINGFIELD 1 0';
	'GIBSON CITY 1 0';
	'GIBSON CITY 1 1';
	'GIBSON CITY 1 2';
	'MAPLETON 0';
	'GIFFORD 0';
	'PETERSBURG 0';
};
